Pcp_File_Version=5
C:\Program Files\PC-Progress\HYDRUS-1D 4.xx\HP1 Databases\PHREEQC.DAT
Total_H
Total_O
Pola
