Pcp_File_Version=4
      1
Welcome to HYDRUS-1D
Parameter Estimation of Soil Hydraulic Properties
   NOBB     MIT iWeight
    175      50       2
  lWatF  lChemF    NMat   lTempF
      t       f       1       f
  Model   Hysteresis
      0       2
  iQSame  lAw2Ad  lKSame  IKappa
      2      f       t       0
    thr     ths    Alfa       n         Ks       l      thm     thsW   AlfaW       KsW
 0.0001    0.43  0.0318  2.6567     0.0145  0.6596    0.43  0.3843     0.0666    0.01 
      1       1       1       1          1       1       0       0          1       0 
 1e-005     0.3       0     1.1          0       0     0.3     0.3          0       0 
  0.019       0       0       0          0       0       0     0.5          0       0 
      HO(N)         FOS   ITYPE(N) POS     WTS
          31         0.02     2     1        1 
          32          0.1     2     1        1 
          33         0.15     2     1        1 
          34          0.2     2     1        1 
          36         0.25     2     1        1 
        38.5          0.3     2     1        1 
          42         0.32     2     1        1 
        46.5         0.34     2     1        1 
          52         0.36     2     1        1 
        61.5         0.38     2     1        1 
          83          0.4     2     1        1 
         139         0.42     2     1        1 
         620       0.4347     2     1        1 
         710       0.4315     2     1        1 
         830       0.4262     2     1        1 
        1430       0.4012     2     1        1 
        1940       0.3898     2     1        1 
        2870       0.3754     2     1        1 
        4250       0.3645     2     1        1 
        7340       0.3441     2     1        1 
       10220       0.3376     2     1        1 
       14420       0.3269     2     1        1 
       21620       0.3108     2     1        1 
       36320       0.2871     2     1        1 
         102         0.02     2     2        1 
         106          0.1     2     2        1 
         108         0.15     2     2        1 
         112          0.2     2     2        1 
         121         0.25     2     2        1 
         133          0.3     2     2        1 
         142         0.32     2     2        1 
         156         0.34     2     2        1 
         176         0.36     2     2        1 
         212         0.38     2     2        1 
         280          0.4     2     2        1 
         500         0.42     2     2        1 
         620       0.4262     2     2        1 
         710       0.4154     2     2        1 
         830       0.4062     2     2        1 
        1430       0.3888     2     2        1 
        1940       0.3838     2     2        1 
        2870       0.3667     2     2        1 
        4250       0.3569     2     2        1 
        7340       0.3405     2     2        1 
       10220       0.3272     2     2        1 
       14420       0.3184     2     2        1 
       21620       0.3067     2     2        1 
       36320       0.2926     2     2        1 
         179         0.02     2     3        1 
         186          0.1     2     3        1 
         190         0.15     2     3        1 
         196          0.2     2     3        1 
         204         0.25     2     3        1 
         225          0.3     2     3        1 
         246         0.32     2     3        1 
         265         0.34     2     3        1 
         300         0.36     2     3        1 
         365         0.38     2     3        1 
         478          0.4     2     3        1 
         620       0.4105     2     3        1 
         710       0.3982     2     3        1 
         830       0.3902     2     3        1 
        1430       0.3745     2     3        1 
        1940       0.3595     2     3        1 
        2870       0.3512     2     3        1 
        4250       0.3413     2     3        1 
        7340       0.3237     2     3        1 
       10220       0.3196     2     3        1 
       14420       0.3074     2     3        1 
       21620       0.2981     2     3        1 
       36320       0.2766     2     3        1 
         280         0.02     2     4        1 
         286          0.1     2     4        1 
         291         0.15     2     4        1 
         299          0.2     2     4        1 
         312         0.25     2     4        1 
         345          0.3     2     4        1 
         370         0.32     2     4        1 
         400         0.34     2     4        1 
         455         0.36     2     4        1 
         550         0.38     2     4        1 
         620       0.3885     2     4        1 
         710       0.3756     2     4        1 
         830       0.3692     2     4        1 
        1430       0.3486     2     4        1 
        1940       0.3383     2     4        1 
        2870       0.3309     2     4        1 
        4250       0.3191     2     4        1 
        7340       0.3038     2     4        1 
       10220       0.3017     2     4        1 
       14420       0.2907     2     4        1 
       21620        0.285     2     4        1 
       36320       0.2708     2     4        1 
         400         0.02     2     5        1 
         408          0.1     2     5        1 
         415         0.15     2     5        1 
         426          0.2     2     5        1 
         440         0.25     2     5        1 
         485          0.3     2     5        1 
         525         0.32     2     5        1 
         560         0.34     2     5        1 
         620       0.3536     2     5        1 
         710       0.3429     2     5        1 
         830       0.3383     2     5        1 
        1430       0.3248     2     5        1 
        1940       0.3134     2     5        1 
        2870       0.3057     2     5        1 
        4250       0.2903     2     5        1 
        7340       0.2876     2     5        1 
       10220       0.2798     2     5        1 
       14420       0.2685     2     5        1 
       21620       0.2655     2     5        1 
       36320       0.2568     2     5        1 
         538         0.02     2     6        1 
         546          0.1     2     6        1 
         556         0.15     2     6        1 
         568          0.2     2     6        1 
         590         0.25     2     6        1 
         620       0.2794     2     6        1 
         710       0.2803     2     6        1 
         830       0.2815     2     6        1 
        1430       0.2841     2     6        1 
        1940       0.2821     2     6        1 
        2870       0.2793     2     6        1 
        4250       0.2691     2     6        1 
        7340       0.2563     2     6        1 
       10220       0.2528     2     6        1 
       14420       0.2517     2     6        1 
       21620       0.2438     2     6        1 
       36320       0.2414     2     6        1 
         830       0.0399     2     7        1 
        1430       0.2113     2     7        1 
        1940       0.2241     2     7        1 
        2870       0.2196     2     7        1 
        3350       0.2164     2     7        1 
        3740       0.2171     2     7        1 
        4250       0.2153     2     7        1 
        5780       0.2136     2     7        1 
        7340       0.2134     2     7        1 
       10220       0.2091     2     7        1 
       12140       0.2072     2     7        1 
       14420       0.2079     2     7        1 
       21620       0.2056     2     7        1 
       32120       0.2058     2     7        1 
       36320       0.2039     2     7        1 
        1940        0.112     2     8        1 
        2870       0.1722     2     8        1 
        3350       0.1787     2     8        1 
        3740       0.1853     2     8        1 
        4250       0.1912     2     8        1 
        5780       0.1916     2     8        1 
        7340       0.1931     2     8        1 
       10220       0.1847     2     8        1 
       12140       0.1859     2     8        1 
       14420       0.1854     2     8        1 
       21620       0.1857     2     8        1 
       32120       0.1868     2     8        1 
       36320       0.1862     2     8        1 
        3350       0.0353     2     9        1 
        3740       0.1053     2     9        1 
        4250       0.1384     2     9        1 
        5780       0.1507     2     9        1 
        7340       0.1568     2     9        1 
       10220       0.1622     2     9        1 
       12140       0.1637     2     9        1 
       14420       0.1664     2     9        1 
       21620       0.1648     2     9        1 
       32120       0.1703     2     9        1 
       36320       0.1737     2     9        1 
       10220       0.0842     2    10        1 
       12140       0.1204     2    10        1 
       14420       0.1307     2    10        1 
       21620        0.138     2    10        1 
       32120       0.1483     2    10        1 
       36320       0.1509     2    10        1 
end*** END OF INPUT FILE 'FIT.IN' **********************************
