Pcp_File_Version=4
    2
    1  0.000000e+000  1.000000e+000  1.000000e+000
    2 -8.000000e+000  1.000000e+000  1.000000e+000
   41    1    1    1 x         h      Mat  Lay      Beta           Axz            Bxz            Dxz          Temp          Conc 
    1  0.000000e+000  0.000000e+000    1    1  0.000000e+000  1.000000e+000  1.000000e+000  1.000000e+000  2.500000e+001  1.001000e+003
    2 -2.000000e-001  0.000000e+000    1    1  0.000000e+000  1.000000e+000  1.000000e+000  1.000000e+000  2.500000e+001  1.001000e+003
    3 -4.000000e-001  0.000000e+000    1    1  0.000000e+000  1.000000e+000  1.000000e+000  1.000000e+000  2.500000e+001  1.001000e+003
    4 -6.000000e-001  0.000000e+000    1    1  0.000000e+000  1.000000e+000  1.000000e+000  1.000000e+000  2.500000e+001  1.001000e+003
    5 -8.000000e-001  0.000000e+000    1    1  0.000000e+000  1.000000e+000  1.000000e+000  1.000000e+000  2.500000e+001  1.001000e+003
    6 -1.000000e+000  0.000000e+000    1    1  0.000000e+000  1.000000e+000  1.000000e+000  1.000000e+000  2.500000e+001  1.001000e+003
    7 -1.200000e+000  0.000000e+000    1    1  0.000000e+000  1.000000e+000  1.000000e+000  1.000000e+000  2.500000e+001  1.001000e+003
    8 -1.400000e+000  0.000000e+000    1    1  0.000000e+000  1.000000e+000  1.000000e+000  1.000000e+000  2.500000e+001  1.001000e+003
    9 -1.600000e+000  0.000000e+000    1    1  0.000000e+000  1.000000e+000  1.000000e+000  1.000000e+000  2.500000e+001  1.001000e+003
   10 -1.800000e+000  0.000000e+000    1    1  0.000000e+000  1.000000e+000  1.000000e+000  1.000000e+000  2.500000e+001  1.001000e+003
   11 -2.000000e+000  0.000000e+000    1    1  0.000000e+000  1.000000e+000  1.000000e+000  1.000000e+000  2.500000e+001  1.001000e+003
   12 -2.200000e+000  0.000000e+000    1    1  0.000000e+000  1.000000e+000  1.000000e+000  1.000000e+000  2.500000e+001  1.001000e+003
   13 -2.400000e+000  0.000000e+000    1    1  0.000000e+000  1.000000e+000  1.000000e+000  1.000000e+000  2.500000e+001  1.001000e+003
   14 -2.600000e+000  0.000000e+000    1    1  0.000000e+000  1.000000e+000  1.000000e+000  1.000000e+000  2.500000e+001  1.001000e+003
   15 -2.800000e+000  0.000000e+000    1    1  0.000000e+000  1.000000e+000  1.000000e+000  1.000000e+000  2.500000e+001  1.001000e+003
   16 -3.000000e+000  0.000000e+000    1    1  0.000000e+000  1.000000e+000  1.000000e+000  1.000000e+000  2.500000e+001  1.001000e+003
   17 -3.200000e+000  0.000000e+000    1    1  0.000000e+000  1.000000e+000  1.000000e+000  1.000000e+000  2.500000e+001  1.001000e+003
   18 -3.400000e+000  0.000000e+000    1    1  0.000000e+000  1.000000e+000  1.000000e+000  1.000000e+000  2.500000e+001  1.001000e+003
   19 -3.600000e+000  0.000000e+000    1    1  0.000000e+000  1.000000e+000  1.000000e+000  1.000000e+000  2.500000e+001  1.001000e+003
   20 -3.800000e+000  0.000000e+000    1    1  0.000000e+000  1.000000e+000  1.000000e+000  1.000000e+000  2.500000e+001  1.001000e+003
   21 -4.000000e+000  0.000000e+000    1    1  0.000000e+000  1.000000e+000  1.000000e+000  1.000000e+000  2.500000e+001  1.001000e+003
   22 -4.200000e+000  0.000000e+000    1    1  0.000000e+000  1.000000e+000  1.000000e+000  1.000000e+000  2.500000e+001  1.001000e+003
   23 -4.400000e+000  0.000000e+000    1    1  0.000000e+000  1.000000e+000  1.000000e+000  1.000000e+000  2.500000e+001  1.001000e+003
   24 -4.600000e+000  0.000000e+000    1    1  0.000000e+000  1.000000e+000  1.000000e+000  1.000000e+000  2.500000e+001  1.001000e+003
   25 -4.800000e+000  0.000000e+000    1    1  0.000000e+000  1.000000e+000  1.000000e+000  1.000000e+000  2.500000e+001  1.001000e+003
   26 -5.000000e+000  0.000000e+000    1    1  0.000000e+000  1.000000e+000  1.000000e+000  1.000000e+000  2.500000e+001  1.001000e+003
   27 -5.200000e+000  0.000000e+000    1    1  0.000000e+000  1.000000e+000  1.000000e+000  1.000000e+000  2.500000e+001  1.001000e+003
   28 -5.400000e+000  0.000000e+000    1    1  0.000000e+000  1.000000e+000  1.000000e+000  1.000000e+000  2.500000e+001  1.001000e+003
   29 -5.600000e+000  0.000000e+000    1    1  0.000000e+000  1.000000e+000  1.000000e+000  1.000000e+000  2.500000e+001  1.001000e+003
   30 -5.800000e+000  0.000000e+000    1    1  0.000000e+000  1.000000e+000  1.000000e+000  1.000000e+000  2.500000e+001  1.001000e+003
   31 -6.000000e+000  0.000000e+000    1    1  0.000000e+000  1.000000e+000  1.000000e+000  1.000000e+000  2.500000e+001  1.001000e+003
   32 -6.200000e+000  0.000000e+000    1    1  0.000000e+000  1.000000e+000  1.000000e+000  1.000000e+000  2.500000e+001  1.001000e+003
   33 -6.400000e+000  0.000000e+000    1    1  0.000000e+000  1.000000e+000  1.000000e+000  1.000000e+000  2.500000e+001  1.001000e+003
   34 -6.600000e+000  0.000000e+000    1    1  0.000000e+000  1.000000e+000  1.000000e+000  1.000000e+000  2.500000e+001  1.001000e+003
   35 -6.800000e+000  0.000000e+000    1    1  0.000000e+000  1.000000e+000  1.000000e+000  1.000000e+000  2.500000e+001  1.001000e+003
   36 -7.000000e+000  0.000000e+000    1    1  0.000000e+000  1.000000e+000  1.000000e+000  1.000000e+000  2.500000e+001  1.001000e+003
   37 -7.200000e+000  0.000000e+000    1    1  0.000000e+000  1.000000e+000  1.000000e+000  1.000000e+000  2.500000e+001  1.001000e+003
   38 -7.400000e+000  0.000000e+000    1    1  0.000000e+000  1.000000e+000  1.000000e+000  1.000000e+000  2.500000e+001  1.001000e+003
   39 -7.600000e+000  0.000000e+000    1    1  0.000000e+000  1.000000e+000  1.000000e+000  1.000000e+000  2.500000e+001  1.001000e+003
   40 -7.800000e+000  0.000000e+000    1    1  0.000000e+000  1.000000e+000  1.000000e+000  1.000000e+000  2.500000e+001  1.001000e+003
   41 -8.000000e+000  0.000000e+000    1    1  0.000000e+000  1.000000e+000  1.000000e+000  1.000000e+000  2.500000e+001  1.001000e+003
    4
   11   21   31   41
