Pcp_File_Version=4
* METEOROLOGICAL PARAMETERS AND INFORMATION |||||||||||||||||||||||||||||||
 MeteoRecords Radiation Penman-Hargreaves
          288        1       f
  lEnBal  lDaily  lDummy  lDummy  lDummy  lDummy  lDummy  lDummy  lDummy  lDummy
       t       f       f       f       f       t       f       f       f       f
 Latitude  Altitude
    33.58        306
 ShortWaveRadA  ShortWaveRadB
          0.25            0.5
 LongWaveRadA   LongWaveRadB
           0.9            0.1
 LongWaveRadA1  LongWaveRadB1
          0.34         -0.139
 WindHeight     TempHeight
        200            150
 iCrop (=0: no crop, =1: constant, =2: table, =3: daily)  SunShine  RelativeHum
         0                                                2         0
    Albedo
      0.23
Daily values
       t        Rad        TMax        TMin     RHMean      Wind    SunHours CropHeight     Albedo   LAI(SCF)      rRoot
      [T]  [MJ/m2/d]       [C]         [C]       [%]     [km/d]     [hour]      [L]           [-]        [-]        [L]
   328.042          0       15.2       15.2         33     138.24      0.545 
   328.083          0       14.9       14.9         32     103.68      0.545 
   328.125          0         15         15         32     138.24      0.545 
   328.167          0       15.7       15.7         30     120.96      0.545 
   328.208          0       14.9       14.9         31     120.96      0.545 
    328.25          0       15.1       15.1         31      172.8      0.545 
   328.292     0.9504       15.8       15.8         29     164.16      0.545 
   328.333     7.8624         16         16         33      77.76      0.545 
   328.375    18.7488       18.5       18.5         34      95.04      0.545 
   328.417    35.1648       22.8       22.8         28     112.32      0.545 
   328.458    42.1632       27.4       27.4         19     190.08      0.545 
     328.5    43.2864       29.6       29.6         14     198.72      0.545 
   328.542    37.3248       30.7       30.7         12      172.8      0.545 
   328.583    26.5248       30.7       30.7         14     146.88      0.545 
   328.625    20.5632       29.5       29.5         20     155.52      0.545 
   328.667      9.072         28         28         19      77.76      0.545 
   328.708     2.5056       25.5       25.5         25      69.12      0.545 
    328.75     0.0864       21.9       21.9         31     146.88      0.545 
   328.792     0.0864       20.4       20.4         33     120.96      0.545 
   328.833     0.0864       19.1       19.1         35      129.6      0.545 
   328.875          0         18         18         37     164.16      0.545 
   328.917          0       17.1       17.1         38     120.96      0.545 
   328.958          0       16.7       16.7         38     120.96      0.545 
       329          0       15.3       15.3         41       86.4      0.545 
   329.042          0       15.5       15.5         37     103.68      0.533 
   329.083          0         16         16         35      129.6      0.533 
   329.125          0       16.1       16.1         32     138.24      0.533 
   329.167          0       15.7       15.7         33     155.52      0.533 
   329.208          0       14.4       14.4         35       86.4      0.533 
    329.25          0       13.9       13.9         37     138.24      0.533 
   329.292      0.432       13.4       13.4         38     120.96      0.533 
   329.333      7.344       15.6       15.6         34      129.6      0.533 
   329.375    23.0688       17.6       17.6         36      95.04      0.533 
   329.417    34.3872         22         22         29      77.76      0.533 
   329.458     41.904         26         26         22      95.04      0.533 
     329.5     44.928       27.2       27.2         21     155.52      0.533 
   329.542    41.7312       27.9       27.9         21     198.72      0.533 
   329.583     19.872       26.5       26.5         21      172.8      0.533 
   329.625    14.9472       26.1       26.1         22     164.16      0.533 
   329.667     7.6032       24.6       24.6         24     120.96      0.533 
   329.708     0.9504       21.9       21.9         32       86.4      0.533 
    329.75     0.0864       19.4       19.4         38     112.32      0.533 
   329.792          0       17.8       17.8         42     112.32      0.533 
   329.833          0       16.5       16.5         45     120.96      0.533 
   329.875          0       15.8       15.8         46     120.96      0.533 
   329.917          0       15.1       15.1         49     120.96      0.533 
   329.958          0       14.4       14.4         51     120.96      0.533 
       330          0       14.1       14.1         48     103.68      0.533 
   330.042          0       13.8       13.8         45     112.32      0.506 
   330.083          0       13.1       13.1         45       86.4      0.506 
   330.125          0       11.8       11.8         49     103.68      0.506 
   330.167          0       11.8       11.8         48     138.24      0.506 
   330.208          0         11         11         49      95.04      0.506 
    330.25          0        9.4        9.4         55      77.76      0.506 
   330.292     0.3456        9.4        9.4         53      77.76      0.506 
   330.333     7.4304         11         11         48       86.4      0.506 
   330.375    18.4032       13.2       13.2         45     112.32      0.506 
   330.417     29.808       15.8       15.8         41     120.96      0.506 
   330.458    37.7568       17.4       17.4         40     146.88      0.506 
     330.5    38.9664       17.9       17.9         41     207.36      0.506 
   330.542    36.1152         19         19         39     138.24      0.506 
   330.583    27.7344         20         20         37     138.24      0.506 
   330.625    18.2304       20.3       20.3         37     181.44      0.506 
   330.667     8.8128       19.2       19.2         44     181.44      0.506 
   330.708     1.3824       17.5       17.5         48     103.68      0.506 
    330.75          0       15.4       15.4         53      60.48      0.506 
   330.792          0       14.1       14.1         57      77.76      0.506 
   330.833          0       12.5       12.5         60      95.04      0.506 
   330.875          0       12.3       12.3         60      129.6      0.506 
   330.917          0       11.8       11.8         58     138.24      0.506 
   330.958          0       10.9       10.9         61     120.96      0.506 
       331          0        9.7        9.7         62     103.68      0.506 
   331.042          0        9.1        9.1         62      95.04      0.591 
   331.083          0        8.4        8.4         62      95.04      0.591 
   331.125          0       10.5       10.5         53      129.6      0.591 
   331.167          0       14.4       14.4         31     328.32      0.591 
   331.208          0       14.9       14.9         25        432      0.591 
    331.25          0       14.8       14.8         21     397.44      0.591 
   331.292     0.6048       14.9       14.9         18     293.76      0.591 
   331.333     9.5904       15.9       15.9         16     362.88      0.591 
   331.375    19.6128       16.9       16.9         14     362.88      0.591 
   331.417    31.6224       18.3       18.3         13      302.4      0.591 
   331.458    38.1024       19.2       19.2         10      561.6      0.591 
     331.5    43.5456       20.1       20.1          7      604.8      0.591 
   331.542    42.1632       20.6       20.6          7     682.56      0.591 
   331.583     34.992       20.9       20.9          6     613.44      0.591 
   331.625    25.7472       20.7       20.7          5     639.36      0.591 
   331.667    12.7872       20.2       20.2          6     552.96      0.591 
   331.708     1.3824       18.9       18.9          8     535.68      0.591 
    331.75          0         18         18          9     406.08      0.591 
   331.792          0       17.1       17.1         10      259.2      0.591 
   331.833          0       15.2       15.2         14     103.68      0.591 
   331.875          0       14.1       14.1         16     146.88      0.591 
   331.917          0       14.7       14.7         16      172.8      0.591 
   331.958          0       12.8       12.8         18      129.6      0.591 
       332          0       10.5       10.5         24     138.24      0.591 
   332.042          0       12.3       12.3         21     190.08      0.567 
   332.083          0       12.2       12.2         20      172.8      0.567 
   332.125          0       11.1       11.1         22     155.52      0.567 
   332.167          0       11.3       11.3         23      172.8      0.567 
   332.208          0       11.8       11.8         22     146.88      0.567 
    332.25          0       11.7       11.7         22     207.36      0.567 
   332.292     0.5184       10.1       10.1         27     103.68      0.567 
   332.333     8.0352       12.7       12.7         27      95.04      0.567 
   332.375    21.6864       17.6       17.6         18        216      0.567 
   332.417    28.3392       17.3       17.3         22     190.08      0.567 
   332.458    39.5712       19.9       19.9         20     155.52      0.567 
     332.5     37.152       22.7       22.7         18     138.24      0.567 
   332.542    39.1392       24.8       24.8         15     146.88      0.567 
   332.583    34.3872       25.3       25.3         14     120.96      0.567 
   332.625    25.4016         26         26         14     120.96      0.567 
   332.667    12.6144       25.7       25.7         15      129.6      0.567 
   332.708      1.728       23.7       23.7         17     164.16      0.567 
    332.75          0       19.4       19.4         23      129.6      0.567 
   332.792          0       17.5       17.5         27     155.52      0.567 
   332.833          0       16.2       16.2         30      129.6      0.567 
   332.875     0.0864       16.1       16.1         31     138.24      0.567 
   332.917          0       16.3       16.3         30     207.36      0.567 
   332.958          0       16.3       16.3         30     190.08      0.567 
       333          0       16.4       16.4         30     164.16      0.567 
   333.042          0       12.5       12.5         37     103.68      0.609 
   333.083          0       12.5       12.5         40     103.68      0.609 
   333.125          0       11.9       11.9         42      77.76      0.609 
   333.167          0       13.3       13.3         36     190.08      0.609 
   333.208          0       12.6       12.6         37     120.96      0.609 
    333.25          0       10.8       10.8         43      77.76      0.609 
   333.292      0.432       10.9       10.9         43       86.4      0.609 
   333.333     9.4176         14         14         38     120.96      0.609 
   333.375    22.2048       16.4       16.4         37       86.4      0.609 
   333.417    33.5232       21.4       21.4         29      77.76      0.609 
   333.458    40.9536       23.5       23.5         25     120.96      0.609 
     333.5     44.064       25.3       25.3         22     120.96      0.609 
   333.542     42.336       26.5       26.5         20     164.16      0.609 
   333.583    35.6832       27.9       27.9         17      129.6      0.609 
   333.625    24.3648       28.1       28.1         17     146.88      0.609 
   333.667    11.8368       27.3       27.3         18      129.6      0.609 
   333.708      1.296       24.2       24.2         23     112.32      0.609 
    333.75          0       20.3       20.3         30     155.52      0.609 
   333.792          0       18.6       18.6         33     164.16      0.609 
   333.833          0       17.3       17.3         35     164.16      0.609 
   333.875          0       16.4       16.4         37      129.6      0.609 
   333.917          0       15.6       15.6         38      95.04      0.609 
   333.958          0       14.9       14.9         39     112.32      0.609 
       334          0       13.9       13.9         42      60.48      0.609 
   334.042          0         13         13         44       86.4      0.596 
   334.083          0       13.3       13.3         43     112.32      0.596 
   334.125          0       13.8       13.8         40     120.96      0.596 
   334.167          0       13.8       13.8         41      129.6      0.596 
   334.208          0       13.2       13.2         40        216      0.596 
    334.25          0       12.8       12.8         40     181.44      0.596 
   334.292      0.432       12.6       12.6         40      172.8      0.596 
   334.333     8.7264       13.7       13.7         39     120.96      0.596 
   334.375    21.8592       16.5       16.5         39      77.76      0.596 
   334.417    32.7456       19.5       19.5         33     120.96      0.596 
   334.458    40.2624       22.8       22.8         26      129.6      0.596 
     334.5    43.1136       25.1       25.1         23     112.32      0.596 
   334.542    41.7312       26.5       26.5         21     146.88      0.596 
   334.583    34.8192         27         27         19     164.16      0.596 
   334.625      23.76         27         27         20     155.52      0.596 
   334.667    10.5408       26.2       26.2         21     120.96      0.596 
   334.708     1.2096       23.1       23.1         28       86.4      0.596 
    334.75          0       19.5       19.5         36     112.32      0.596 
   334.792          0       17.7       17.7         40     138.24      0.596 
   334.833          0       16.3       16.3         44     138.24      0.596 
   334.875          0       15.3       15.3         48     138.24      0.596 
   334.917          0       14.3       14.3         50      129.6      0.596 
   334.958          0       13.6       13.6         51     155.52      0.596 
       335          0       13.3       13.3         51     103.68      0.596 
   335.042          0       12.8       12.8         51      77.76      0.543 
   335.083          0       12.5       12.5         49     103.68      0.543 
   335.125          0       12.8       12.8         44     103.68      0.543 
   335.167          0       12.4       12.4         45     112.32      0.543 
   335.208          0       11.6       11.6         45     103.68      0.543 
    335.25          0        9.6        9.6         52      60.48      0.543 
   335.292      0.432       10.5       10.5         49      129.6      0.543 
   335.333     6.7392       11.6       11.6         47      95.04      0.543 
   335.375    18.8352         15         15         42      95.04      0.543 
   335.417    29.6352       17.3       17.3         39     112.32      0.543 
   335.458    36.3744       19.8       19.8         34     120.96      0.543 
     335.5     40.176       21.6       21.6         30     164.16      0.543 
   335.542    36.8064         23         23         26     138.24      0.543 
   335.583     32.832       24.2       24.2         23     138.24      0.543 
   335.625    21.7728         24         24         23      172.8      0.543 
   335.667    10.1952       23.1       23.1         26     138.24      0.543 
   335.708      0.864       20.6       20.6         31       86.4      0.543 
    335.75          0       17.5       17.5         38     112.32      0.543 
   335.792          0       15.8       15.8         43      129.6      0.543 
   335.833          0       14.2       14.2         51     138.24      0.543 
   335.875          0         13         13         54      129.6      0.543 
   335.917          0       12.1       12.1         55     103.68      0.543 
   335.958          0       11.5       11.5         52     120.96      0.543 
       336          0       10.9       10.9         51     120.96      0.543 
   336.042          0         10         10         54     112.32      0.558 
   336.083          0        9.5        9.5         54      69.12      0.558 
   336.125          0        8.6        8.6         56      69.12      0.558 
   336.167          0        8.3        8.3         55      77.76      0.558 
   336.208          0        8.1        8.1         55     120.96      0.558 
    336.25          0        7.2        7.2         57      60.48      0.558 
   336.292      0.432        7.4        7.4         57      95.04      0.558 
   336.333     7.4304        8.5        8.5         56      51.84      0.558 
   336.375    20.2176       12.2       12.2         49      69.12      0.558 
   336.417    30.4992       13.6       13.6         45     138.24      0.558 
   336.458    37.6704         15         15         43     138.24      0.558 
     336.5    40.8672       16.6       16.6         41     120.96      0.558 
   336.542     37.584       18.1       18.1         38      129.6      0.558 
   336.583     32.832       19.4       19.4         35     138.24      0.558 
   336.625     21.168       19.9       19.9         35     164.16      0.558 
   336.667     9.5904       19.7       19.7         39      129.6      0.558 
   336.708     1.1232       17.9       17.9         44      77.76      0.558 
    336.75          0       15.8       15.8         49       86.4      0.558 
   336.792          0       15.1       15.1         52      77.76      0.558 
   336.833          0       13.2       13.2         55       86.4      0.558 
   336.875          0       11.9       11.9         58     112.32      0.558 
   336.917          0         11         11         60     112.32      0.558 
   336.958          0       10.5       10.5         61     138.24      0.558 
       337          0       10.1       10.1         62      95.04      0.558 
   337.042          0        9.5        9.5         63     103.68      0.551 
   337.083          0        9.1        9.1         62      77.76      0.551 
   337.125          0        8.5        8.5         62      95.04      0.551 
   337.167          0        8.1        8.1         62      95.04      0.551 
   337.208          0        7.7        7.7         62     103.68      0.551 
    337.25          0          8          8         62     120.96      0.551 
   337.292      0.432        8.3        8.3         61      129.6      0.551 
   337.333       6.48        7.8        7.8         62     103.68      0.551 
   337.375    18.2304       10.8       10.8         58      95.04      0.551 
   337.417    29.6352       13.1       13.1         52     120.96      0.551 
   337.458    37.3248       15.1       15.1         45     103.68      0.551 
     337.5    41.1264       17.7       17.7         36     120.96      0.551 
   337.542    38.1024       19.5       19.5         33      129.6      0.551 
   337.583    31.6224       20.4       20.4         32     155.52      0.551 
   337.625       21.6       20.7       20.7         29     164.16      0.551 
   337.667      9.504         20         20         33     138.24      0.551 
   337.708     1.2096       18.1       18.1         42      129.6      0.551 
    337.75          0       15.7       15.7         48      95.04      0.551 
   337.792          0       13.9       13.9         53     120.96      0.551 
   337.833          0         13         13         55     138.24      0.551 
   337.875          0       12.2       12.2         57     120.96      0.551 
   337.917          0       11.4       11.4         58     120.96      0.551 
   337.958          0       10.7       10.7         59     103.68      0.551 
       338          0       10.1       10.1         61     112.32      0.551 
   338.042          0        9.4        9.4         62     103.68       0.52 
   338.083          0        9.2        9.2         62     103.68       0.52 
   338.125          0        9.1        9.1         62      95.04       0.52 
   338.167          0        8.4        8.4         62      95.04       0.52 
   338.208          0        8.1        8.1         62      60.48       0.52 
    338.25          0        7.9        7.9         62      95.04       0.52 
   338.292     0.3456        8.3        8.3         61       86.4       0.52 
   338.333      5.616        8.3        8.3         61      69.12       0.52 
   338.375    17.1936       12.6       12.6         56       86.4       0.52 
   338.417    27.9936       15.8       15.8         44      95.04       0.52 
   338.458    34.0416       17.8       17.8         38     138.24       0.52 
     338.5    38.7072       20.1       20.1         32      95.04       0.52 
   338.542    37.2384       21.6       21.6         27     138.24       0.52 
   338.583    30.3264         22         22         28     155.52       0.52 
   338.625    20.6496       22.2       22.2         29     164.16       0.52 
   338.667     8.2944       21.4       21.4         33      129.6       0.52 
   338.708     0.7776       19.1       19.1         40      77.76       0.52 
    338.75          0       16.7       16.7         47     103.68       0.52 
   338.792          0       15.4       15.4         50      129.6       0.52 
   338.833          0       14.6       14.6         54     146.88       0.52 
   338.875          0       14.6       14.6         54     120.96       0.52 
   338.917          0       13.4       13.4         58     112.32       0.52 
   338.958          0       12.6       12.6         57     120.96       0.52 
       339          0         12         12         58      95.04       0.52 
   339.042          0       11.2       11.2         58      69.12      0.454 
   339.083          0       11.8       11.8         58     146.88      0.454 
   339.125          0       11.9       11.9         58     112.32      0.454 
   339.167          0       12.6       12.6         58     198.72      0.454 
   339.208          0       12.7       12.7         58     190.08      0.454 
    339.25          0       11.8       11.8         58     112.32      0.454 
   339.292      0.432       11.3       11.3         58     112.32      0.454 
   339.333      5.616       12.2       12.2         58       86.4      0.454 
   339.375     11.232       13.8       13.8         58      69.12      0.454 
   339.417    28.3392       16.4       16.4         58     103.68      0.454 
   339.458    30.1536       19.8       19.8         58     112.32      0.454 
     339.5    39.2256       22.2       22.2         58     112.32      0.454 
   339.542    30.3264       23.5       23.5         58      129.6      0.454 
   339.583    23.6736       23.7       23.7         58     138.24      0.454 
   339.625    15.3792       23.7       23.7         58     120.96      0.454 
   339.667     6.7392         23         23         58      69.12      0.454 
   339.708     1.2096       20.7       20.7         58       86.4      0.454 
    339.75     0.0864       18.3       18.3         58     112.32      0.454 
   339.792          0       17.1       17.1         58     138.24      0.454 
   339.833          0       16.4       16.4         58     120.96      0.454 
   339.875          0       15.6       15.6         58      129.6      0.454 
   339.917          0       14.9       14.9         58     103.68      0.454 
   339.958          0       14.1       14.1         58     112.32      0.454 
       340          0       13.7       13.7         58      129.6      0.454 
end *** END OF INPUT FILE 'METEO.IN' **********************************
