Pcp_File_Version=4
*** BLOCK I: ATMOSPHERIC INFORMATION  **********************************
   MaxAL                    (MaxAL = number of atmospheric data-records)
   1095
 DailyVar  SinusVar  lDummy  lDummy  lDummy  lDummy  lDummy  lDummy  lDummy  lDummy
       f       f       f       f       f       t       f       f       f       f
 hCritS                 (max. allowed pressure head at the soil surface)
      0
       tAtm        Prec       rSoil       rRoot      hCritA          rB          hB          ht        tTop        tBot        Ampl        cTop        cBot   RootDepth
          1        0.02           0           0      100000           0           0           0           0           0           0        3001        4001 
          2        0.14           0           0      100000           0           0           0           0           0           0        3001        4001 
          3           0           0           0      100000           0           0           0           0           0           0        3001        4001 
          4           0           0           0      100000           0           0           0           0           0           0        3001        4001 
          5           0           0           0      100000           0           0           0           0           0           0        3001        4001 
          6           0           0           0      100000           0           0           0           0           0           0        3001        4001 
          7       0.005           0           0      100000           0           0           0           0           0           0        3001        4001 
          8           0           0           0      100000           0           0           0           0           0           0        3001        4001 
          9           0           0           0      100000           0           0           0           0           0           0        3001        4001 
         10        0.18           0           0      100000           0           0           0           0           0           0        3001        4001 
         11        0.08           0           0      100000           0           0           0           0           0           0        3001        4001 
         12        0.15           0           0      100000           0           0           0           0           0           0        3001        4001 
         13        0.02           0           0      100000           0           0           0           0           0           0        3001        4001 
         14        0.42           0           0      100000           0           0           0           0           0           0        3001        4001 
         15        0.34           0           0      100000           0           0           0           0           0           0        3001        4001 
         16       0.005           0           0      100000           0           0           0           0           0           0        3001        4001 
         17        0.22           0           0      100000           0           0           0           0           0           0        3001        4001 
         18        0.42           0           0      100000           0           0           0           0           0           0        3001        4001 
         19        0.02           0           0      100000           0           0           0           0           0           0        3001        4001 
         20       0.005           0           0      100000           0           0           0           0           0           0        3001        4001 
         21       0.005           0           0      100000           0           0           0           0           0           0        3001        4001 
         22        0.42           0           0      100000           0           0           0           0           0           0        3001        4001 
         23           0           0           0      100000           0           0           0           0           0           0        3001        4001 
         24       0.005           0           0      100000           0           0           0           0           0           0        3001        4001 
         25       0.005           0           0      100000           0           0           0           0           0           0        3001        4001 
         26           0           0           0      100000           0           0           0           0           0           0        3001        4001 
         27       0.005           0           0      100000           0           0           0           0           0           0        3001        4001 
         28        0.52           0           0      100000           0           0           0           0           0           0        3001        4001 
         29        0.12           0           0      100000           0           0           0           0           0           0        3001        4001 
         30        0.02           0           0      100000           0           0           0           0           0           0        3001        4001 
         31        0.12           0           0      100000           0           0           0           0           0           0        3001        4001 
         32        0.24           0           0      100000           0           0           0           0           0           0        3001        4001 
         33         0.6           0           0      100000           0           0           0           0           0           0        3001        4001 
         34        0.12           0           0      100000           0           0           0           0           0           0        3001        4001 
         35           0           0           0      100000           0           0           0           0           0           0        3001        4001 
         36       0.005           0           0      100000           0           0           0           0           0           0        3001        4001 
         37         0.5           0           0      100000           0           0           0           0           0           0        3001        4001 
         38        0.24           0           0      100000           0           0           0           0           0           0        3001        4001 
         39        0.32           0           0      100000           0           0           0           0           0           0        3001        4001 
         40        0.84           0           0      100000           0           0           0           0           0           0        3001        4001 
         41        0.42           0           0      100000           0           0           0           0           0           0        3001        4001 
         42    0.919996           0           0      100000           0           0           0           0           0           0        3001        4001 
         43        0.42           0           0      100000           0           0           0           0           0           0        3001        4001 
         44           0           0           0      100000           0           0           0           0           0           0        3001        4001 
         45           0           0           0      100000           0           0           0           0           0           0        3001        4001 
         46        0.42           0           0      100000           0           0           0           0           0           0        3001        4001 
         47        2.22           0           0      100000           0           0           0           0           0           0        3001        4001 
         48        0.26           0           0      100000           0           0           0           0           0           0        3001        4001 
         49        0.04           0           0      100000           0           0           0           0           0           0        3001        4001 
         50        0.32           0           0      100000           0           0           0           0           0           0        3001        4001 
         51           0           0           0      100000           0           0           0           0           0           0        3001        4001 
         52        0.08           0           0      100000           0           0           0           0           0           0        3001        4001 
         53        0.02           0           0      100000           0           0           0           0           0           0        3001        4001 
         54           0           0           0      100000           0           0           0           0           0           0        3001        4001 
         55       0.005           0           0      100000           0           0           0           0           0           0        3001        4001 
         56       0.005           0           0      100000           0           0           0           0           0           0        3001        4001 
         57        0.32           0           0      100000           0           0           0           0           0           0        3001        4001 
         58       0.005           0           0      100000           0           0           0           0           0           0        3001        4001 
         59           0           0           0      100000           0           0           0           0           0           0        3001        4001 
         60           0           0           0      100000           0           0           0           0           0           0        3001        4001 
         61       0.005           0           0      100000           0           0           0           0           0           0        3001        4001 
         62       0.005           0           0      100000           0           0           0           0           0           0        3001        4001 
         63           0           0           0      100000           0           0           0           0           0           0        3001        4001 
         64           0           0           0      100000           0           0           0           0           0           0        3001        4001 
         65           0           0           0      100000           0           0           0           0           0           0        3001        4001 
         66           0           0           0      100000           0           0           0           0           0           0        3001        4001 
         67           0           0           0      100000           0           0           0           0           0           0        3001        4001 
         68           0           0           0      100000           0           0           0           0           0           0        3001        4001 
         69        0.12           0           0      100000           0           0           0           0           0           0        3001        4001 
         70        0.74           0           0      100000           0           0           0           0           0           0        3001        4001 
         71        1.43           0           0      100000           0           0           0           0           0           0        3001        4001 
         72        0.42           0           0      100000           0           0           0           0           0           0        3001        4001 
         73        0.22           0           0      100000           0           0           0           0           0           0        3001        4001 
         74        0.08           0           0      100000           0           0           0           0           0           0        3001        4001 
         75       0.005           0           0      100000           0           0           0           0           0           0        3001        4001 
         76        0.38           0           0      100000           0           0           0           0           0           0        3001        4001 
         77       0.005           0           0      100000           0           0           0           0           0           0        3001        4001 
         78       0.005           0           0      100000           0           0           0           0           0           0        3001        4001 
         79           0           0           0      100000           0           0           0           0           0           0        3001        4001 
         80           0           0           0      100000           0           0           0           0           0           0        3001        4001 
         81           0           0           0      100000           0           0           0           0           0           0        3001        4001 
         82        0.18           0           0      100000           0           0           0           0           0           0        3001        4001 
         83        0.12           0           0      100000           0           0           0           0           0           0        3001        4001 
         84        0.02           0           0      100000           0           0           0           0           0           0        3001        4001 
         85           0           0           0      100000           0           0           0           0           0           0        3001        4001 
         86        0.04           0           0      100000           0           0           0           0           0           0        3001        4001 
         87        0.02           0           0      100000           0           0           0           0           0           0        3001        4001 
         88        0.12           0           0      100000           0           0           0           0           0           0        3001        4001 
         89        0.28           0           0      100000           0           0           0           0           0           0        3001        4001 
         90    0.880001           0           0      100000           0           0           0           0           0           0        3001        4001 
         91        0.14           0           0      100000           0           0           0           0           0           0        3001        4001 
         92       0.005           0           0      100000           0           0           0           0           0           0        3001        4001 
         93           0           0           0      100000           0           0           0           0           0           0        3001        4001 
         94           0           0           0      100000           0           0           0           0           0           0        3001        4001 
         95           0           0           0      100000           0           0           0           0           0           0        3001        4001 
         96           0           0           0      100000           0           0           0           0           0           0        3001        4001 
         97           0           0           0      100000           0           0           0           0           0           0        3001        4001 
         98           0           0           0      100000           0           0           0           0           0           0        3001        4001 
         99           0           0           0      100000           0           0           0           0           0           0        3001        4001 
        100       0.005           0           0      100000           0           0           0           0           0           0        3001        4001 
        101        0.22           0           0      100000           0           0           0           0           0           0        3001        4001 
        102        0.68           0           0      100000           0           0           0           0           0           0        3001        4001 
        103        0.28           0           0      100000           0           0           0           0           0           0        3001        4001 
        104        0.62           0           0      100000           0           0           0           0           0           0        3001        4001 
        105        0.74           0           0      100000           0           0           0           0           0           0        3001        4001 
        106        0.02           0           0      100000           0           0           0           0           0           0        3001        4001 
        107         0.5           0           0      100000           0           0           0           0           0           0        3001        4001 
        108        0.22           0           0      100000           0           0           0           0           0           0        3001        4001 
        109       0.005           0           0      100000           0           0           0           0           0           0        3001        4001 
        110        0.08           0           0      100000           0           0           0           0           0           0        3001        4001 
        111        1.42           0           0      100000           0           0           0           0           0           0        3001        4001 
        112        0.48           0           0      100000           0           0           0           0           0           0        3001        4001 
        113        0.03           0           0      100000           0           0           0           0           0           0        3001        4001 
        114         0.2           0           0      100000           0           0           0           0           0           0        3001        4001 
        115           0           0           0      100000           0           0           0           0           0           0        3001        4001 
        116        0.86           0           0      100000           0           0           0           0           0           0        3001        4001 
        117           0           0           0      100000           0           0           0           0           0           0        3001        4001 
        118           0           0           0      100000           0           0           0           0           0           0        3001        4001 
        119           0           0           0      100000           0           0           0           0           0           0        3001        4001 
        120       0.005           0           0      100000           0           0           0           0           0           0        3001        4001 
        121        0.06           0           0      100000           0           0           0           0           0           0        3001        4001 
        122       0.005           0           0      100000           0           0           0           0           0           0        3001        4001 
        123        0.27           0           0      100000           0           0           0           0           0           0        3001        4001 
        124        0.18           0           0      100000           0           0           0           0           0           0        3001        4001 
        125        0.22           0           0      100000           0           0           0           0           0           0        3001        4001 
        126        0.17           0           0      100000           0           0           0           0           0           0        3001        4001 
        127           0           0           0      100000           0           0           0           0           0           0        3001        4001 
        128       0.005           0           0      100000           0           0           0           0           0           0        3001        4001 
        129    0.970004           0           0      100000           0           0           0           0           0           0        3001        4001 
        130        0.06           0           0      100000           0           0           0           0           0           0        3001        4001 
        131       0.005           0           0      100000           0           0           0           0           0           0        3001        4001 
        132           0           0           0      100000           0           0           0           0           0           0        3001        4001 
        133       0.005           0           0      100000           0           0           0           0           0           0        3001        4001 
        134           1           0           0      100000           0           0           0           0           0           0        3001        4001 
        135         0.3           0           0      100000           0           0           0           0           0           0        3001        4001 
        136        1.04           0           0      100000           0           0           0           0           0           0        3001        4001 
        137        0.22           0           0      100000           0           0           0           0           0           0        3001        4001 
        138        0.52           0           0      100000           0           0           0           0           0           0        3001        4001 
        139        0.83           0           0      100000           0           0           0           0           0           0        3001        4001 
        140           0           0           0      100000           0           0           0           0           0           0        3001        4001 
        141        0.03           0           0      100000           0           0           0           0           0           0        3001        4001 
        142           0           0           0      100000           0           0           0           0           0           0        3001        4001 
        143           0           0           0      100000           0           0           0           0           0           0        3001        4001 
        144         0.3           0           0      100000           0           0           0           0           0           0        3001        4001 
        145        0.07           0           0      100000           0           0           0           0           0           0        3001        4001 
        146        0.18           0           0      100000           0           0           0           0           0           0        3001        4001 
        147        0.54           0           0      100000           0           0           0           0           0           0        3001        4001 
        148        0.12           0           0      100000           0           0           0           0           0           0        3001        4001 
        149       0.005           0           0      100000           0           0           0           0           0           0        3001        4001 
        150    0.930001           0           0      100000           0           0           0           0           0           0        3001        4001 
        151        0.17           0           0      100000           0           0           0           0           0           0        3001        4001 
        152        0.54           0           0      100000           0           0           0           0           0           0        3001        4001 
        153         0.8           0           0      100000           0           0           0           0           0           0        3001        4001 
        154        0.72           0           0      100000           0           0           0           0           0           0        3001        4001 
        155        0.34           0           0      100000           0           0           0           0           0           0        3001        4001 
        156        0.07           0           0      100000           0           0           0           0           0           0        3001        4001 
        157        0.03           0           0      100000           0           0           0           0           0           0        3001        4001 
        158           0           0           0      100000           0           0           0           0           0           0        3001        4001 
        159           0           0           0      100000           0           0           0           0           0           0        3001        4001 
        160           0           0           0      100000           0           0           0           0           0           0        3001        4001 
        161           0           0           0      100000           0           0           0           0           0           0        3001        4001 
        162           0           0           0      100000           0           0           0           0           0           0        3001        4001 
        163           0           0           0      100000           0           0           0           0           0           0        3001        4001 
        164       0.005           0           0      100000           0           0           0           0           0           0        3001        4001 
        165        0.15           0           0      100000           0           0           0           0           0           0        3001        4001 
        166           0           0           0      100000           0           0           0           0           0           0        3001        4001 
        167        0.42           0           0      100000           0           0           0           0           0           0        3001        4001 
        168       0.005           0           0      100000           0           0           0           0           0           0        3001        4001 
        169        0.11           0           0      100000           0           0           0           0           0           0        3001        4001 
        170       0.005           0           0      100000           0           0           0           0           0           0        3001        4001 
        171        0.13           0           0      100000           0           0           0           0           0           0        3001        4001 
        172        0.45           0           0      100000           0           0           0           0           0           0        3001        4001 
        173        0.07           0           0      100000           0           0           0           0           0           0        3001        4001 
        174        0.83           0           0      100000           0           0           0           0           0           0        3001        4001 
        175        0.42           0           0      100000           0           0           0           0           0           0        3001        4001 
        176         0.2           0           0      100000           0           0           0           0           0           0        3001        4001 
        177           0           0           0      100000           0           0           0           0           0           0        3001        4001 
        178        0.07           0           0      100000           0           0           0           0           0           0        3001        4001 
        179           0           0           0      100000           0           0           0           0           0           0        3001        4001 
        180           0           0           0      100000           0           0           0           0           0           0        3001        4001 
        181           0           0           0      100000           0           0           0           0           0           0        3001        4001 
        182           0           0           0      100000           0           0           0           0           0           0        3001        4001 
        183           0           0           0      100000           0           0           0           0           0           0        3001        4001 
        184           0           0           0      100000           0           0           0           0           0           0        3001        4001 
        185           0           0           0      100000           0           0           0           0           0           0        3001        4001 
        186           0           0           0      100000           0           0           0           0           0           0        3001        4001 