Pcp_File_Version=4
*** BLOCK I: ATMOSPHERIC INFORMATION  **********************************
   MaxAL                    (MaxAL = number of atmospheric data-records)
    245
 DailyVar  SinusVar  lDummy  lDummy  lDummy  lDummy  lDummy  lDummy  lDummy  lDummy
       f       f       f       f       f       t       f       f       f       f
 hCritS                 (max. allowed pressure head at the soil surface)
      0
       tAtm        Prec       rSoil       rRoot      hCritA          rB          hB          ht        tTop        tBot        Ampl    RootDepth
          1           0           0      0.0157       10000           0           0           0           2           0           5 
          2           0           0      0.0157       10000           0           0           0           2           0           5 
          3           0           0      0.0157       10000           0           0           0           2           0           5 
          4         1.3           0      0.0157       10000           0           0           0           2           0           5 
          5           0           0      0.0157       10000           0           0           0           2           0           5 
          6           0           0      0.0157       10000           0           0           0           2           0           5 
          7           0           0      0.0157       10000           0           0           0           2           0           5 
          8           0           0      0.0157       10000           0           0           0           2           0           5 
          9           0           0      0.0157       10000           0           0           0           2           0           5 
         10           0           0      0.0157       10000           0           0           0           2           0           5 
         11         0.8           0      0.0699       10000           0           0           0           6           0           5 
         12           0           0      0.0699       10000           0           0           0           6           0           5 
         13         2.3           0      0.0699       10000           0           0           0           6           0           5 
         14           0           0      0.0699       10000           0           0           0           6           0           5 
         15         0.4           0      0.0699       10000           0           0           0           6           0           5 
         16           0           0      0.0699       10000           0           0           0           6           0           5 
         17           0           0      0.0699       10000           0           0           0           6           0           5 
         18           0           0      0.0699       10000           0           0           0           6           0           5 
         19           0           0      0.0699       10000           0           0           0           6           0           5 
         20           0           0      0.0699       10000           0           0           0           6           0           5 
         21           0           0      0.1034       10000           0           0           0           8           0           5 
         22         1.4           0      0.1034       10000           0           0           0           8           0           5 
         23           0           0      0.1034       10000           0           0           0          10           0           5 
         24           0           0      0.1034       10000           0           0           0          10           0           5 
         25           0           0      0.1034       10000           0           0           0          10           0           5 
         26           0           0      0.1034       10000           0           0           0          11           0           5 
         27           0           0      0.1034       10000           0           0           0          11           0           5 
         28           0           0      0.1034       10000           0           0           0          10           0           5 
         29           0           0      0.1034       10000           0           0           0          10           0           5 
         30           0           0      0.1034       10000           0           0           0           8           0           5 
         31         0.3           0      0.1034       10000           0           0           0           8           0           5 
         32           0           0      0.0929       10000           0           0           0           7           0           5 
         33         1.7           0      0.0929       10000           0           0           0           7           0           5 
         34         0.2           0      0.0929       10000           0           0           0           7           0           5 
         35           0           0      0.0929       10000           0           0           0           7           0           5 
         36           0           0      0.0929       10000           0           0           0           7           0           5 
         37         0.1           0      0.0929       10000           0           0           0           7           0           5 
         38         0.1           0      0.0929       10000           0           0           0           7           0           5 
         39           0           0      0.0929       10000           0           0           0           7           0           5 
         40           0           0      0.0929       10000           0           0           0           7           0           5 
         41           0           0      0.0929       10000           0           0           0           7           0           5 
         42           0           0      0.1509       10000           0           0           0          10           0           5 
         43           0           0      0.1509       10000           0           0           0          10           0           5 
         44           0           0      0.1509       10000           0           0           0          10           0           5 
         45           0           0      0.1509       10000           0           0           0          10           0           5 
         46           0           0      0.1509       10000           0           0           0          10           0           5 
         47         1.6           0      0.1509       10000           0           0           0          10           0           5 
         48           0           0      0.1509       10000           0           0           0          10           0           5 
         49         0.2           0      0.1509       10000           0           0           0          10           0           5 
         50         0.3           0      0.1509       10000           0           0           0          10           0           5 
         51           0           0      0.1509       10000           0           0           0          10           0           5 
         52           0           0      0.2156       10000           0           0           0          13           0           5 
         53           0           0      0.2156       10000           0           0           0          13           0           5 
         54           0           0      0.2156       10000           0           0           0          13           0           5 
         55           0           0      0.2156       10000           0           0           0          13           0           5 
         56         0.2           0      0.2156       10000           0           0           0          13           0           5 
         57         0.1           0      0.2156       10000           0           0           0          13           0           5 
         58           0           0      0.2156       10000           0           0           0          13           0           5 
         59           0           0      0.2156       10000           0           0           0          13           0           5 
         60           0           0      0.2156       10000           0           0           0          13           0           5 
         61           0           0      0.2156       10000           0           0           0          13           0           5 
         62           0           0      0.3719       10000           0           0           0          13           0           5 
         63           0           0      0.3719       10000           0           0           0          18           0           5 
         64           0           0      0.3719       10000           0           0           0          18           0           5 
         65           0           0      0.3719       10000           0           0           0          18           0           5 
         66           0           0      0.3719       10000           0           0           0          18           0           5 
         67         2.1           0      0.3719       10000           0           0           0          18           0           5 
         68           0           0      0.3719       10000           0           0           0          18           0           5 
         69         0.3           0      0.3719       10000           0           0           0          18           0           5 
         70           0           0      0.3719       10000           0           0           0          18           0           5 
         71           0           0      0.3719       10000           0           0           0          18           0           5 
         72           0           0      0.4292       10000           0           0           0          20           0           5 
         73         0.4           0      0.4292       10000           0           0           0          20           0           5 
         74           0           0      0.4292       10000           0           0           0          20           0           5 
         75         1.6           0      0.4292       10000           0           0           0          20           0           5 
         76         0.4           0      0.4292       10000           0           0           0          20           0           5 
         77         0.2           0      0.4292       10000           0           0           0          20           0           5 
         78         0.3           0      0.4292       10000           0           0           0          20           0           5 
         79         0.1           0      0.4292       10000           0           0           0          20           0           5 
         80         0.2           0      0.4292       10000           0           0           0          20           0           5 
         81           0           0      0.4292       10000           0           0           0          20           0           5 
         82         4.6           0      0.4292       10000           0           0           0          20           0           5 
         83           0           0      0.4292       10000           0           0           0          20           0           5 
         84           0           0      0.4292       10000           0           0           0          20           0           5 
         85           0           0      0.4292       10000           0           0           0          20           0           5 
         86         0.4           0      0.4292       10000           0           0           0          20           0           5 
         87         0.5           0      0.4292       10000           0           0           0          20           0           5 
         88         0.6           0      0.4292       10000           0           0           0          20           0           5 
         89         1.1           0      0.4292       10000           0           0           0          20           0           5 
         90           0           0      0.4292       10000           0           0           0          20           0           5 
         91           0           0      0.4292       10000           0           0           0          20           0           5 
         92         1.6           0      0.4292       10000           0           0           0          20           0           5 
         93           0           0      0.3469       10000           0           0           0          17           0           5 
         94         1.2           0      0.3469       10000           0           0           0          17           0           5 
         95           0           0      0.3469       10000           0           0           0          17           0           5 
         96         0.1           0      0.3469       10000           0           0           0          17           0           5 
         97           0           0      0.3469       10000           0           0           0          17           0           5 
         98         5.1           0      0.3469       10000           0           0           0          17           0           5 
         99           0           0      0.3469       10000           0           0           0          17           0           5 
        100         0.1           0      0.3469       10000           0           0           0          17           0           5 
        101         0.2           0      0.3469       10000           0           0           0          17           0           5 
        102         3.2           0      0.3469       10000           0           0           0          17           0           5 
        103         0.1           0      0.4327       10000           0           0           0          20           0           5 
        104         0.1           0      0.4327       10000           0           0           0          20           0           5 
        105           0           0      0.4327       10000           0           0           0          20           0           5 
        106         0.2           0      0.4327       10000           0           0           0          20           0           5 
        107         0.1           0      0.4327       10000           0           0           0          20           0           5 
        108           0           0      0.4327       10000           0           0           0          20           0           5 
        109         4.9           0      0.4327       10000           0           0           0          20           0           5 
        110           0           0      0.4327       10000           0           0           0          20           0           5 
        111         1.6           0      0.4327       10000           0           0           0          20           0           5 
        112           0           0      0.4327       10000           0           0           0          20           0           5 
        113         0.4           0      0.4926       10000           0           0           0          22           0           5 
        114           0           0      0.4926       10000           0           0           0          22           0           5 
        115           0           0      0.4926       10000           0           0           0          22           0           5 
        116           0           0      0.4926       10000           0           0           0          22           0           5 
        117         0.2           0      0.4926       10000           0           0           0          22           0           5 
        118         4.3           0      0.4926       10000           0           0           0          22           0           5 
        119           0           0      0.4926       10000           0           0           0          22           0           5 
        120           0           0      0.4926       10000           0           0           0          22           0           5 
        121           0           0      0.4926       10000           0           0           0          22           0           5 
        122           0           0      0.4926       10000           0           0           0          22           0           5 
        123         0.5           0      0.5634       10000           0           0           0          24           0           5 
        124         1.2           0      0.5634       10000           0           0           0          24           0           5 
        125         0.7           0      0.5634       10000           0           0           0          24           0           5 
        126           0           0      0.5634       10000           0           0           0          24           0           5 
        127           0           0      0.5634       10000           0           0           0          24           0           5 
        128         0.4           0      0.5634       10000           0           0           0          24           0           5 
        129           0           0      0.5634       10000           0           0           0          24           0           5 
        130         5.1           0      0.5634       10000           0           0           0          24           0           5 
        131           0           0      0.5634       10000           0           0           0          24           0           5 
        132         0.3           0      0.5634       10000           0           0           0          24           0           5 
        133           0           0      0.5956       10000           0           0           0          25           0           5 
        134         0.3           0      0.5956       10000           0           0           0          25           0           5 
        135           0           0      0.5956       10000           0           0           0          25           0           5 
        136           0           0      0.5956       10000           0           0           0          25           0           5 
        137           0           0      0.5956       10000           0           0           0          25           0           5 
        138           0           0      0.5956       10000           0           0           0          25           0           5 
        139           0           0      0.5956       10000           0           0           0          25           0           5 
        140           0           0      0.5956       10000           0           0           0          25           0           5 
        141           0           0      0.5956       10000           0           0           0          25           0           5 
        142           0           0      0.5956       10000           0           0           0          25           0           5 
        143           0           0      0.6282       10000           0           0           0          26           0           5 
        144           0           0      0.6282       10000           0           0           0          26           0           5 
        145           0           0      0.6282       10000           0           0           0          26           0           5 
        146           0           0      0.6282       10000           0           0           0          26           0           5 
        147           0           0      0.6282       10000           0           0           0          26           0           5 
        148           0           0      0.6282       10000           0           0           0          26           0           5 
        149           0           0      0.6282       10000           0           0           0          26           0           5 
        150           0           0      0.6282       10000           0           0           0          26           0           5 
        151           0           0      0.6282       10000           0           0           0          26           0           5 
        152           0           0      0.6282       10000           0           0           0          26           0           5 
        153           0           0      0.6282       10000           0           0           0          26           0           5 
        154           0           0      0.5883       10000           0           0           0          26           0           5 
        155           0           0      0.5883       10000           0           0           0          26           0           5 
        156           0           0      0.5883       10000           0           0           0          26           0           5 
        157           0           0      0.5883       10000           0           0           0          26           0           5 
        158           0           0      0.5883       10000           0           0           0          26           0           5 
        159         2.6           0      0.5883       10000           0           0           0          26           0           5 
        160         0.1           0      0.5883       10000           0           0           0          26           0           5 
        161         0.4           0      0.5883       10000           0           0           0          26           0           5 
        162           0           0      0.5883       10000           0           0           0          26           0           5 
        163           0           0      0.5883       10000           0           0           0          26           0           5 
        164           0           0      0.4688       10000           0           0           0          22           0           5 
        165         0.9           0      0.4688       10000           0           0           0          22           0           5 
        166           0           0      0.4688       10000           0           0           0          22           0           5 
        167           0           0      0.4688       10000           0           0           0          22           0           5 
        168         1.2           0      0.4688       10000           0           0           0          22           0           5 
        169           0           0      0.4688       10000           0           0           0          22           0           5 
        170         8.3           0      0.4688       10000           0           0           0          22           0           5 
        171           0           0      0.4688       10000           0           0           0          22           0           5 
        172         0.4           0      0.4688       10000           0           0           0          22           0           5 
        173           0           0      0.4688       10000           0           0           0          22           0           5 
        174           0           0      0.4688       10000           0           0           0          22           0           5 
        175         1.1           0      0.4688       10000           0           0           0          22           0           5 
        176         0.2           0      0.4688       10000           0           0           0          22           0           5 
        177         0.3           0      0.4688       10000           0           0           0          22           0           5 
        178           0           0      0.4688       10000           0           0           0          22           0           5 
        179           0           0      0.4688       10000           0           0           0          22           0           5 
        180         8.8           0      0.4688       10000           0           0           0          22           0           5 
        181           0           0      0.4688       10000           0           0           0          22           0           5 
        182         4.2           0      0.4688       10000           0           0           0          22           0           5 
        183           0           0      0.4688       10000           0           0           0          22           0           5 
        184           0           0      0.4688       10000           0           0           0          22           0           5 
        185           5           0      0.3878       10000           0           0           0          21           0           5 
        186           0           0      0.3878       10000           0           0           0          21           0           5 
        187           0           0      0.3878       10000           0           0           0          21           0           5 
        188           0           0      0.3878       10000           0           0           0          21           0           5 
        189           0           0      0.3878       10000           0           0           0          21           0           5 
        190           0           0      0.3878       10000           0           0           0          21           0           5 
        191           0           0      0.3878       10000           0           0           0          21           0           5 
        192         0.1           0      0.3878       10000           0           0           0          21           0           5 
        193           0           0      0.3878       10000           0           0           0          21           0           5 
        194           0           0      0.3878       10000           0           0           0          21           0           5 
        195           0           0      0.3385       10000           0           0           0          19           0           5 
        196           0           0      0.3385       10000           0           0           0          19           0           5 
        197           0           0      0.3385       10000           0           0           0          19           0           5 
        198         0.2           0      0.3385       10000           0           0           0          19           0           5 
        199         2.8           0      0.3385       10000           0           0           0          19           0           5 
        200         0.5           0      0.3385       10000           0           0           0          19           0           5 
        201           0           0      0.3385       10000           0           0           0          19           0           5 
        202         1.1           0      0.3385       10000           0           0           0          19           0           5 
        203           0           0      0.3385       10000           0           0           0          19           0           5 
        204           0           0      0.3385       10000           0           0           0          19           0           5 
        205           0           0       0.268       10000           0           0           0          16           0           5 
        206           0           0       0.268       10000           0           0           0          16           0           5 
        207           0           0       0.268       10000           0           0           0          16           0           5 
        208           0           0       0.268       10000           0           0           0          16           0           5 
        209           0           0       0.268       10000           0           0           0          16           0           5 
        210         0.3           0       0.268       10000           0           0           0          16           0           5 
        211           0           0       0.268       10000           0           0           0          16           0           5 
        212           0           0       0.268       10000           0           0           0          16           0           5 
        213           0           0       0.268       10000           0           0           0          16           0           5 
        214           0           0       0.268       10000           0           0           0          16           0           5 
        215           0           0      0.2686       10000           0           0           0          17           0           5 
        216           0           0      0.2686       10000           0           0           0          17           0           5 
        217           0           0      0.2686       10000           0           0           0          17           0           5 
        218         0.3           0      0.2686       10000           0           0           0          17           0           5 
        219           0           0      0.2686       10000           0           0           0          17           0           5 