Pcp_File_Version=3
*** BLOCK A: BASIC INFORMATION *****************************************
Heading
Skaggs' column Test 1
LUnit  TUnit  MUnit  (indicated units are obligatory for all input data)
cm
sec
-
lWat   lChem lTemp  lSink lRoot lShort lWDep lScreen lVariabBC lEquil lInverse
 t     t     f      f     f     f      f     t       t         f         f
lSnow   lDummy  lDummy
 f       f       f       f       f       f       f       f       f       f       f
NMat    NLay  CosAlpha
  1       1       1
*** BLOCK B: WATER FLOW INFORMATION ************************************
MaxIt   TolTh   TolH       (maximum number of iterations and tolerances)
  10   0.0001    0.1
TopInf WLayer KodTop InitCond
 t     f       1       f
BotInf qGWLF FreeD SeepF KodBot DrainF
 f     f     t     f     -1      f
    hTab1   hTabN
    1e-006    1000
    Model   Hysteresis
      6          0
   thr     ths    Alfa      n         Ks       l     thrIm   thsIm      Omega
      0     0.2   0.041   1.964   0.000722     0.5       0    0.15     1e-005 
*** BLOCK C: TIME INFORMATION ******************************************
        dt       dtMin       dtMax     DMul    DMul2  ItMin ItMax  MPL
       0.05        0.01     600.001     1.1     0.8     3     7     4
      tInit        tMax
          0        7200
  lPrintD  nPrintSteps tPrintInterval lEnter
     t           1           100       t
TPrint(1),TPrint(2),...,TPrint(MPL)
       1800        3600        5400        7200 
*** BLOCK F: SOLUTE TRANSPORT INFORMATION *****************************************************
 Epsi  lUpW  lArtD lTDep    cTolA    cTolR   MaxItC    PeCr  No.Solutes  lTort   iBacter   lFiltr  nChPar
  0.5     f     f     f         0         0     1        2        1       t       0        f       16
     Bulk.d.     DisperL.      Frac      Mobile WC (1..NMat)
        1.4           2           1           0 
         DifW       DifG                n-th solute
          0           0 
         Ks          Nu        Beta       Henry       SnkL1       SnkS1       SnkG1       SnkL1'      SnkS1'      SnkG1'      SnkL0       SnkS0       SnkG0        Alfa
          0           0           1           0           0           0           0           0           0           0           0           0           0           0 
      kTopSolute  SolTop    kBotSolute  SolBot
         -1           1           0           0 
      tPulse
       9000
*** END OF INPUT FILE 'SELECTOR.IN' ************************************
