Pcp_File_Version=4
      1
Welcome to HYDRUS-1D
Parameter Estimation of Soil Hydraulic Properties
   NOBB     MIT iWeight
     45       6       2
  lWatF  lChemF    NMat   lTempF
      t       f       1       f
  Model   Hysteresis
      0       0
    thr     ths    Alfa       n         Ks       l
   0.08  0.3421    0.03       5          1    -0.5 
      1       0       1       1          1       1 
 1e-005     0.2       0     1.1          0       0 
      0     0.5     0.1      10          0       0 
      HO(N)         FOS   ITYPE(N) POS     WTS
           5        0.282     2     2        1 
          10        0.246     2     2        1 
          20        0.206     2     2        1 
        8500         0.09     2     2       10 
           5          0.3     2     3        1 
          10        0.258     2     3        1 
          20        0.212     2     3        1 
        8500         0.09     2     3       10 
           5        0.325     2     4        1 
          10        0.278     2     4        1 
          20        0.222     2     4        1 
          40        0.187     2     4        1 
          60        0.167     2     4        1 
        8500         0.09     2     4       10 
           5        0.342     2     5        1 
          10          0.3     2     5        1 
          20         0.24     2     5        1 
          40        0.196     2     5        1 
          60        0.172     2     5        1 
         120        0.148     2     5        1 
        8500         0.09     2     5       10 
          10        0.342     2     6        1 
          20        0.276     2     6        1 
          40        0.212     2     6        1 
          60        0.188     2     6        1 
         120        0.155     2     6        1 
        8500          0.1     2     6       10 
          20        0.304     2     7        1 
          40        0.234     2     7        1 
          60        0.202     2     7        1 
         120        0.164     2     7        1 
        8500         0.11     2     7       10 
          20        0.342     2     8        1 
          40        0.264     2     8        1 
          60        0.225     2     8        1 
         120        0.187     2     8        1 
        8500        0.125     2     8       10 
          40        0.294     2     9        1 
          60        0.264     2     9        1 
         120         0.21     2     9        1 
        8500         0.16     2     9       10 
          40        0.342     2    10        1 
          60        0.302     2    10        1 
         120        0.254     2    10        1 
        8500         0.24     2    10       10 
end*** END OF INPUT FILE 'FIT.IN' **********************************
