#HP1BEGIN GENERAL ###############################################
#This block will be overwritten by HP1
# DATABASE C:\software\hydrus1D-4.0\HP1 Databases
# Project Folder : D:\HP1\test cases version2.0\examples\TRANSCL\
TITLE : Welcome to HYDRUS-1D
# Number of soil layers : 1
# 1-101  #soil material 1
#HP1END #########################################################

#HP1BEGIN DATABASE ##############################################
#add new thermodynamic data - This block will not be overwritten by HP1

SOLUTION_MASTER_SPECIES

SOLUTION_SPECIES

PHASES

EXCHANGE_MASTER_SPECIES

EXCHANGE_SPECIES

SURFACE_MASTER_SPECIES

SURFACE_SPECIES

RATES

#HP1END #########################################################

SELECTED_OUTPUT
 -file TRANSCL.hse
 -reset false 
 -solution true 
 -distance true 
 -time true 
 -pH true 
 -pe true 

#HP1BEGIN OUTPUT ################################################
#Define output
#This block will not be overwritten by HP1


#HP1END #########################################################

#HP1BEGIN SOLUTIONDEFINITION ####################################
#This block will not be overwritten by HP1
#Definition of the solution compositions - initial and boundary


#HP1END #########################################################

#HP1BEGIN INITIAL ###############################################
#Definition of the initial conditions
#This block will be overwritten by HP1
END
MIX 1 ;	7	0.242132	; SAVE SOLUTION	1	 ; END
MIX 2 ;	7	0.242132	; SAVE SOLUTION	2	 ; END
MIX 3 ;	7	0.242132	; SAVE SOLUTION	3	 ; END
MIX 4 ;	7	0.242132	; SAVE SOLUTION	4	 ; END
MIX 5 ;	7	0.242132	; SAVE SOLUTION	5	 ; END
MIX 6 ;	7	0.242132	; SAVE SOLUTION	6	 ; END
MIX 7 ;	7	0.242132	; SAVE SOLUTION	7	 ; END
MIX 8 ;	7	0.242132	; SAVE SOLUTION	8	 ; END
MIX 9 ;	7	0.242132	; SAVE SOLUTION	9	 ; END
MIX 10 ;	7	0.242132	; SAVE SOLUTION	10	 ; END
MIX 11 ;	7	0.242132	; SAVE SOLUTION	11	 ; END
MIX 12 ;	7	0.242132	; SAVE SOLUTION	12	 ; END
MIX 13 ;	7	0.242132	; SAVE SOLUTION	13	 ; END
MIX 14 ;	7	0.242132	; SAVE SOLUTION	14	 ; END
MIX 15 ;	7	0.242132	; SAVE SOLUTION	15	 ; END
MIX 16 ;	7	0.242132	; SAVE SOLUTION	16	 ; END
MIX 17 ;	7	0.242132	; SAVE SOLUTION	17	 ; END
MIX 18 ;	7	0.242132	; SAVE SOLUTION	18	 ; END
MIX 19 ;	7	0.242132	; SAVE SOLUTION	19	 ; END
MIX 20 ;	7	0.242132	; SAVE SOLUTION	20	 ; END
MIX 21 ;	7	0.242132	; SAVE SOLUTION	21	 ; END
MIX 22 ;	7	0.242132	; SAVE SOLUTION	22	 ; END
MIX 23 ;	7	0.242132	; SAVE SOLUTION	23	 ; END
MIX 24 ;	7	0.242132	; SAVE SOLUTION	24	 ; END
MIX 25 ;	7	0.242132	; SAVE SOLUTION	25	 ; END
MIX 26 ;	7	0.242132	; SAVE SOLUTION	26	 ; END
MIX 27 ;	7	0.242132	; SAVE SOLUTION	27	 ; END
MIX 28 ;	7	0.242132	; SAVE SOLUTION	28	 ; END
MIX 29 ;	7	0.242132	; SAVE SOLUTION	29	 ; END
MIX 30 ;	7	0.242132	; SAVE SOLUTION	30	 ; END
MIX 31 ;	7	0.242132	; SAVE SOLUTION	31	 ; END
MIX 32 ;	7	0.242132	; SAVE SOLUTION	32	 ; END
MIX 33 ;	7	0.242132	; SAVE SOLUTION	33	 ; END
MIX 34 ;	7	0.242132	; SAVE SOLUTION	34	 ; END
MIX 35 ;	7	0.242132	; SAVE SOLUTION	35	 ; END
MIX 36 ;	7	0.242132	; SAVE SOLUTION	36	 ; END
MIX 37 ;	7	0.242132	; SAVE SOLUTION	37	 ; END
MIX 38 ;	7	0.242132	; SAVE SOLUTION	38	 ; END
MIX 39 ;	7	0.242132	; SAVE SOLUTION	39	 ; END
MIX 40 ;	7	0.242132	; SAVE SOLUTION	40	 ; END
MIX 41 ;	7	0.242132	; SAVE SOLUTION	41	 ; END
MIX 42 ;	7	0.242132	; SAVE SOLUTION	42	 ; END
MIX 43 ;	7	0.242132	; SAVE SOLUTION	43	 ; END
MIX 44 ;	7	0.242132	; SAVE SOLUTION	44	 ; END
MIX 45 ;	7	0.242132	; SAVE SOLUTION	45	 ; END
MIX 46 ;	7	0.242132	; SAVE SOLUTION	46	 ; END
MIX 47 ;	7	0.242132	; SAVE SOLUTION	47	 ; END
MIX 48 ;	7	0.242132	; SAVE SOLUTION	48	 ; END
MIX 49 ;	7	0.242132	; SAVE SOLUTION	49	 ; END
MIX 50 ;	7	0.242132	; SAVE SOLUTION	50	 ; END
MIX 51 ;	7	0.242132	; SAVE SOLUTION	51	 ; END
MIX 52 ;	7	0.242132	; SAVE SOLUTION	52	 ; END
MIX 53 ;	7	0.242132	; SAVE SOLUTION	53	 ; END
MIX 54 ;	7	0.242132	; SAVE SOLUTION	54	 ; END
MIX 55 ;	7	0.242132	; SAVE SOLUTION	55	 ; END
MIX 56 ;	7	0.242132	; SAVE SOLUTION	56	 ; END
MIX 57 ;	7	0.242132	; SAVE SOLUTION	57	 ; END
MIX 58 ;	7	0.242132	; SAVE SOLUTION	58	 ; END
MIX 59 ;	7	0.242132	; SAVE SOLUTION	59	 ; END
MIX 60 ;	7	0.242132	; SAVE SOLUTION	60	 ; END
MIX 61 ;	7	0.242132	; SAVE SOLUTION	61	 ; END
MIX 62 ;	7	0.242132	; SAVE SOLUTION	62	 ; END
MIX 63 ;	7	0.242132	; SAVE SOLUTION	63	 ; END
MIX 64 ;	7	0.242132	; SAVE SOLUTION	64	 ; END
MIX 65 ;	7	0.242132	; SAVE SOLUTION	65	 ; END
MIX 66 ;	7	0.242132	; SAVE SOLUTION	66	 ; END
MIX 67 ;	7	0.242132	; SAVE SOLUTION	67	 ; END
MIX 68 ;	7	0.242132	; SAVE SOLUTION	68	 ; END
MIX 69 ;	7	0.242132	; SAVE SOLUTION	69	 ; END
MIX 70 ;	7	0.242132	; SAVE SOLUTION	70	 ; END
MIX 71 ;	7	0.242132	; SAVE SOLUTION	71	 ; END
MIX 72 ;	7	0.242132	; SAVE SOLUTION	72	 ; END
MIX 73 ;	7	0.242132	; SAVE SOLUTION	73	 ; END
MIX 74 ;	7	0.242132	; SAVE SOLUTION	74	 ; END
MIX 75 ;	7	0.242132	; SAVE SOLUTION	75	 ; END
MIX 76 ;	7	0.242132	; SAVE SOLUTION	76	 ; END
MIX 77 ;	7	0.242132	; SAVE SOLUTION	77	 ; END
MIX 78 ;	7	0.242132	; SAVE SOLUTION	78	 ; END
MIX 79 ;	7	0.242132	; SAVE SOLUTION	79	 ; END
MIX 80 ;	7	0.242132	; SAVE SOLUTION	80	 ; END
MIX 81 ;	7	0.242132	; SAVE SOLUTION	81	 ; END
MIX 82 ;	7	0.242132	; SAVE SOLUTION	82	 ; END
MIX 83 ;	7	0.242132	; SAVE SOLUTION	83	 ; END
MIX 84 ;	7	0.242132	; SAVE SOLUTION	84	 ; END
MIX 85 ;	7	0.242132	; SAVE SOLUTION	85	 ; END
MIX 86 ;	7	0.242132	; SAVE SOLUTION	86	 ; END
MIX 87 ;	7	0.242132	; SAVE SOLUTION	87	 ; END
MIX 88 ;	7	0.242132	; SAVE SOLUTION	88	 ; END
MIX 89 ;	7	0.242132	; SAVE SOLUTION	89	 ; END
MIX 90 ;	7	0.242132	; SAVE SOLUTION	90	 ; END
MIX 91 ;	7	0.242132	; SAVE SOLUTION	91	 ; END
MIX 92 ;	7	0.242132	; SAVE SOLUTION	92	 ; END
MIX 93 ;	7	0.242132	; SAVE SOLUTION	93	 ; END
MIX 94 ;	7	0.242132	; SAVE SOLUTION	94	 ; END
MIX 95 ;	7	0.242132	; SAVE SOLUTION	95	 ; END
MIX 96 ;	7	0.242132	; SAVE SOLUTION	96	 ; END
MIX 97 ;	7	0.242132	; SAVE SOLUTION	97	 ; END
MIX 98 ;	7	0.242132	; SAVE SOLUTION	98	 ; END
MIX 99 ;	7	0.242132	; SAVE SOLUTION	99	 ; END
MIX 100 ;	7	0.242132	; SAVE SOLUTION	100	 ; END
MIX 101 ;	7	0.242132	; SAVE SOLUTION	101	 ; END

#HP1END #########################################################

#HP1BEGIN GEOCHEMICAL ###########################################
#Define geochemical model
#This block will not be overwritten by HP1


#HP1END #########################################################

#HP1BEGIN TRANSPORT  ############################################
#Definition of transport
#This block will be overwritten by HP1

PRINT
 -reset false
 -echo_input true
 -warnings 500

TRANSPORT
 -cells 101
 -gnuplot true

#HP1END #########################################################

