Pcp_File_Version=5
C:\Program Files\PC-Progress\HYDRUS-1D 4.xx\HP1 Databases\mcatexch.dat
Total_H
Total_O
Na
K
Ca
Mg
Cl
Br
Cd
Pb
Zn
Ca
