Pcp_File_Version=4
*** BLOCK A: BASIC INFORMATION *****************************************
Heading
Welcome to HYDRUS-1D
LUnit  TUnit  MUnit  (indicated units are obligatory for all input data)
cm
days
mmol
lWat   lChem lTemp  lSink lRoot lShort lWDep lScreen lVariabBC lEquil lInverse
 t     t     t      f     f     f      t     t       f         t         f
lSnow  lHP1   lMeteo  lVapor  lDummy  lFluxes lDummy  lDummy  lDummy  lDummy
 f       f       f       t       f       f       f       f       f       f
NMat    NLay  CosAlpha
  1       1       0
*** BLOCK B: WATER FLOW INFORMATION ************************************
MaxIt   TolTh   TolH       (maximum number of iterations and tolerances)
  10   5e-006    0.1
TopInf WLayer KodTop InitCond
 f     f      -1       t
BotInf qGWLF FreeD SeepF KodBot DrainF  hSeep
 f     f     f     f     -1      f      0
         rTop         rBot        rRoot
           0            0            0
    hTab1   hTabN
    1e-006   10000
    Model   Hysteresis
      0          0
   thr     ths    Alfa      n         Ks       l
   0.03   0.499   0.036    1.56       33.7     0.5 
*** BLOCK C: TIME INFORMATION ******************************************
        dt       dtMin       dtMax     DMul    DMul2  ItMin ItMax  MPL
       0.01      0.0001           5     1.3     0.7     3     7     9
      tInit        tMax
          0          25
  lPrintD  nPrintSteps tPrintInterval lEnter
     f           1          1000       t
TPrint(1),TPrint(2),...,TPrint(MPL)
       0.25         0.5           1           2           3           4 
          5          10          25 
*** BLOCK E: HEAT TRANSPORT INFORMATION *********************************************************
    Qn      Qo    Disper.    B1          B2          B3          Cn          Co           Cw
   0.57       0       0 1.56728e+016 2.53474e+016 9.89388e+016 1.43327e+014 1.8737e+014 3.12035e+014 
      tAmpl     tPeriod    Campbell   MeltConst  lDummy  lDummy  lDummy  lDummy  lDummy
          0           1          0          0       f       f       f       f       f
      kTopT       TTop      kBotT       TBot
          1         10           1         25
*** BLOCK F: SOLUTE TRANSPORT INFORMATION *****************************************************
 Epsi  lUpW  lArtD lTDep    cTolA    cTolR   MaxItC    PeCr  No.Solutes  lTort   iBacter   lFiltr  nChPar
  0.5     f     f     f         0         0     1        2        1       t       0        f       16
iNonEqul lWatDep lDualNEq lDummy  lDummy  lDummy  lDummy  lDummy  lDummy  lDummy  lDummy
   0       f       f       f       f       f       f       f       f       f       f
     Bulk.d.     DisperL.      Frac      Mobile WC (1..NMat)
        1.5           1           1           0 
         DifW       DifG                n-th solute
          0           0 
         Ks          Nu        Beta       Henry       SnkL1       SnkS1       SnkG1       SnkL1'      SnkS1'      SnkG1'      SnkL0       SnkS0       SnkG0        Alfa
          0           0           1           0           0           0           0           0           0           0           0           0           0           0 
      kTopSolute  SolTop    kBotSolute  SolBot
         -1           0          -1           0 
      tPulse
          5
*** END OF INPUT FILE 'SELECTOR.IN' ************************************
